/*--------------------------------*- C++ -*----------------------------------*\
| =========                 |                                                 |
| \\      /  F ield         | OpenFOAM: The Open Source CFD Toolbox           |
|  \\    /   O peration     | Version:  4.0                                   |
|   \\  /    A nd           | Web:      www.OpenFOAM.org                      |
|    \\/     M anipulation  |                                                 |
\*---------------------------------------------------------------------------*/
FoamFile
{
    version     2.0;
    format      ascii;
    class       dictionary;
    object      blockMeshDict;
}
// * * * * * * * * * * * * * * * * * * * * * * * * * * * * * * * * * * * * * //

convertToMeters 1;

vertices
(
    ( -0.36 -0.288 0)
    (  0.6 -0.288 0)
    (  0.6 0.288 0)
    ( -0.36 0.288 0)
    ( -0.36 -0.288 0.0753984)
    (  0.6 -0.288 0.0753984)
    (  0.6 0.288 0.0753984)
    ( -0.36 0.288 0.0753984)
);

blocks
(
    hex (0 1 2 3 4 5 6 7) (300 181 26) simpleGrading (1 1 1)
);

edges
(
);

boundary
(
    IN
    {
        type            mapped;
        faces           ((0 3 7 4));
    }
    OUT
    {
        type            patch;
        faces           ((1 2 6 5));
    }
    SYM1
    {
        type            slip;
        faces           ((3 2 6 7));
    }
    SYM2
    {
        type            slip;
        faces           ((0 1 5 4));
    }
    periodic1
    {
        type            slip;
        faces           ((0 1 2 3));
    }
    periodic2
    {
        type            slip;
        faces           ((4 5 6 7));
    }
);

// ************************************************************************* //
