/*--------------------------------*- C++ -*----------------------------------*\
| =========                 |                                                 |
| \\      /  F ield         | OpenFOAM: The Open Source CFD Toolbox           |
|  \\    /   O peration     | Version:  3.0.1                                 |
|   \\  /    A nd           | Web:      www.OpenFOAM.org                      |
|    \\/     M anipulation  |                                                 |
\*---------------------------------------------------------------------------*/
FoamFile
{
    version     2.0;
    format      ascii;
    class       dictionary;
    location    "system";
    object      controlDict;
} 
// * * * * * * * * * * * * * * * * * * * * * * * * * * * * * * * * * * * * * //


libs (
        "libforces.so"
        "/usr/not-backed-up/cfd/fixedMeanVal/libfixedMeanValue.so"
 );  		 


application     pimpleFoam;

startFrom       latestTime;

startTime       0;

stopAt          endTime;

endTime         70;

deltaT          1e-6;

writeControl    adjustableRunTime;

writeInterval   0.1;

purgeWrite      1;

writeFormat     ascii;

writePrecision  6;

writeCompression on;

timeFormat      general;

timePrecision   6;

runTimeModifiable true;

adjustTimeStep  yes; 

maxCo           0.5;

functions
{
    #includeFunc    monitor_probes


fieldAverage1
{
        type            fieldAverage;
        functionObjectLibs ( "libfieldFunctionObjects.so" );
        enabled         true;
        writeControl    runTime;
        writeInterval   0.1;

        fields
        (
            U
            {
                mean        on;
                prime2Mean  on;
                base        time;
            }

            p
            {
                mean        on;
                prime2Mean  on;
                base        time;
            }
        );
}

}


// ************************************************************************* //
