/*--------------------------------*- C++ -*----------------------------------*\
| =========                 |                                                 |
| \\      /  F ield         | OpenFOAM: The Open Source CFD Toolbox           |
|  \\    /   O peration     | Version:  3.0.1                                 |
|   \\  /    A nd           | Web:      www.OpenFOAM.org                      |
|    \\/     M anipulation  |                                                 |
\*---------------------------------------------------------------------------*/
FoamFile
{
    version     2.0;
    format      ascii;
    class       volVectorField;
    location    "1";
    object      U;
}
// * * * * * * * * * * * * * * * * * * * * * * * * * * * * * * * * * * * * * //

dimensions      [0 1 -1 0 0 0 0];

internalField   uniform (0 0 0);

boundaryField
{
    IN
    {
        type             mapped;
        value           uniform (0.195 0 0);
        interpolationScheme cell;
        setAverage          true;
        average             (0.195 0 0);
    }
    OUT
    {
       type             inletOutlet;
       inletValue       uniform (0 0 0);
       inlet            uniform (0 0 0);
    }
    SYM1
    {
        type            slip;
    }
    SYM2
    {
        type            slip;
    }
    periodic1
    {
        type            slip;
    }
    periodic2
    {
        type            slip;
    }
}


// ************************************************************************* //
